HIV-1 PROTEASE
 OpenBabel12262511013D

 84 90  0  0  1  0  0  0  0  0999 V2000
   -8.6110   15.0600   27.9540 C   0  0  0  0  0  0  0  0  0  0  0  0
   -7.9390   14.0390   27.9410 O   0  0  0  0  0  0  0  0  0  0  0  0
   -8.4610   15.9230   26.9050 N   0  0  0  0  0  0  0  0  0  0  0  0
   -7.8540   15.3510   25.6960 C   0  0  0  0  0  0  0  0  0  0  0  0
   -7.9408   14.3588   25.7850 H   0  0  0  0  0  0  0  0  0  0  0  0
   -6.8873   15.6053   25.7242 H   0  0  0  0  0  0  0  0  0  0  0  0
   -8.6270   17.3880   27.0110 C   0  0  1  0  0  0  0  0  0  0  0  0
   -8.5515   17.7068   26.0662 H   0  0  0  0  0  0  0  0  0  0  0  0
  -10.0290   17.9100   27.2980 C   0  0  2  0  0  0  0  0  0  0  0  0
  -10.7509   17.5207   26.7259 H   0  0  0  0  0  0  0  0  0  0  0  0
   -9.9290   19.2740   26.9980 O   0  0  0  0  0  0  0  0  0  0  0  0
   -9.9062   19.3913   26.0483 H   0  0  0  0  0  0  0  0  0  0  0  0
  -10.4610   17.6450   28.7330 C   0  0  1  0  0  0  0  0  0  0  0  0
   -9.7923   18.0610   29.3493 H   0  0  0  0  0  0  0  0  0  0  0  0
  -11.6920   18.2540   29.0200 O   0  0  0  0  0  0  0  0  0  0  0  0
  -11.5721   19.2014   29.0853 H   0  0  0  0  0  0  0  0  0  0  0  0
  -10.6570   16.1520   28.9640 C   0  0  2  0  0  0  0  0  0  0  0  0
  -10.9554   16.2104   29.9167 H   0  0  0  0  0  0  0  0  0  0  0  0
   -9.4610   15.2940   29.0040 N   0  0  0  0  0  0  0  0  0  0  0  0
   -9.2710   14.4910   30.2150 C   0  0  0  0  0  0  0  0  0  0  0  0
   -8.3579   14.0901   30.1412 H   0  0  0  0  0  0  0  0  0  0  0  0
   -9.9581   13.7654   30.1769 H   0  0  0  0  0  0  0  0  0  0  0  0
   -8.3810   15.7300   24.3360 C   0  0  0  0  0  0  0  0  0  0  0  0
   -9.7690   15.7120   24.0220 C   0  0  0  0  0  0  0  0  0  0  0  0
  -10.4426   15.5524   24.7437 H   0  0  0  0  0  0  0  0  0  0  0  0
  -10.1950   15.9190   22.6940 C   0  0  0  0  0  0  0  0  0  0  0  0
  -11.1677   15.9018   22.4627 H   0  0  0  0  0  0  0  0  0  0  0  0
   -9.2190   16.1520   21.6930 C   0  0  0  0  0  0  0  0  0  0  0  0
   -9.6080   16.3040   20.3490 C   0  0  0  0  0  0  0  0  0  0  0  0
  -10.5760   16.2680   20.1006 H   0  0  0  0  0  0  0  0  0  0  0  0
   -8.6260   16.5080   19.3490 C   0  0  0  0  0  0  0  0  0  0  0  0
   -8.9132   16.6160   18.3972 H   0  0  0  0  0  0  0  0  0  0  0  0
   -7.2630   16.5620   19.6620 C   0  0  0  0  0  0  0  0  0  0  0  0
   -6.5836   16.7112   18.9435 H   0  0  0  0  0  0  0  0  0  0  0  0
   -6.8600   16.4030   21.0060 C   0  0  0  0  0  0  0  0  0  0  0  0
   -5.8891   16.4392   21.2427 H   0  0  0  0  0  0  0  0  0  0  0  0
   -7.8280   16.1920   22.0220 C   0  0  0  0  0  0  0  0  0  0  0  0
   -7.4080   15.9830   23.3460 C   0  0  0  0  0  0  0  0  0  0  0  0
   -6.4369   16.0130   23.5827 H   0  0  0  0  0  0  0  0  0  0  0  0
   -7.4760   17.9720   27.8940 C   0  0  0  0  0  0  0  0  0  0  0  0
   -7.6674   18.9324   28.0963 H   0  0  0  0  0  0  0  0  0  0  0  0
   -7.4187   17.4560   28.7487 H   0  0  0  0  0  0  0  0  0  0  0  0
   -6.1240   17.8900   27.1930 C   0  0  0  0  0  0  0  0  0  0  0  0
   -5.2260   16.8260   27.4940 C   0  0  0  0  0  0  0  0  0  0  0  0
   -5.4406   16.1880   28.2335 H   0  0  0  0  0  0  0  0  0  0  0  0
   -4.0290   16.6670   26.7500 C   0  0  0  0  0  0  0  0  0  0  0  0
   -3.4045   15.9125   26.9517 H   0  0  0  0  0  0  0  0  0  0  0  0
   -3.7300   17.5850   25.7230 C   0  0  0  0  0  0  0  0  0  0  0  0
   -2.8889   17.4766   25.1932 H   0  0  0  0  0  0  0  0  0  0  0  0
   -4.6070   18.6600   25.4320 C   0  0  0  0  0  0  0  0  0  0  0  0
   -4.3774   19.3110   24.7085 H   0  0  0  0  0  0  0  0  0  0  0  0
   -5.8030   18.8110   26.1630 C   0  0  0  0  0  0  0  0  0  0  0  0
   -6.4244   19.5666   25.9556 H   0  0  0  0  0  0  0  0  0  0  0  0
  -11.7120   15.4510   28.0790 C   0  0  0  0  0  0  0  0  0  0  0  0
  -12.4478   16.0941   27.8669 H   0  0  0  0  0  0  0  0  0  0  0  0
  -11.2822   15.1440   27.2299 H   0  0  0  0  0  0  0  0  0  0  0  0
  -12.3100   14.2480   28.7790 C   0  0  0  0  0  0  0  0  0  0  0  0
  -13.1670   14.4220   29.8980 C   0  0  0  0  0  0  0  0  0  0  0  0
  -13.3908   15.3396   30.2265 H   0  0  0  0  0  0  0  0  0  0  0  0
  -13.7000   13.2810   30.5420 C   0  0  0  0  0  0  0  0  0  0  0  0
  -14.3026   13.3860   31.3331 H   0  0  0  0  0  0  0  0  0  0  0  0
  -13.3740   11.9820   30.0580 C   0  0  0  0  0  0  0  0  0  0  0  0
  -13.7508   11.1769   30.5161 H   0  0  0  0  0  0  0  0  0  0  0  0
  -12.5290   11.8140   28.9440 C   0  0  0  0  0  0  0  0  0  0  0  0
  -12.3111   10.8973   28.6091 H   0  0  0  0  0  0  0  0  0  0  0  0
  -11.9920   12.9540   28.3040 C   0  0  0  0  0  0  0  0  0  0  0  0
  -11.3871   12.8458   27.5151 H   0  0  0  0  0  0  0  0  0  0  0  0
   -9.3740   15.1480   31.5710 C   0  0  0  0  0  0  0  0  0  0  0  0
  -10.2280   14.4920   32.4770 C   0  0  0  0  0  0  0  0  0  0  0  0
  -10.7950   13.7255   32.1755 H   0  0  0  0  0  0  0  0  0  0  0  0
  -10.2720   14.9260   33.8000 C   0  0  0  0  0  0  0  0  0  0  0  0
  -11.1560   14.2820   34.7090 C   0  0  0  0  0  0  0  0  0  0  0  0
  -11.7106   13.5061   34.4082 H   0  0  0  0  0  0  0  0  0  0  0  0
  -11.2450   14.7480   36.0440 C   0  0  0  0  0  0  0  0  0  0  0  0
  -11.8717   14.3137   36.6910 H   0  0  0  0  0  0  0  0  0  0  0  0
  -10.4350   15.8370   36.4510 C   0  0  0  0  0  0  0  0  0  0  0  0
  -10.4954   16.1641   37.3941 H   0  0  0  0  0  0  0  0  0  0  0  0
   -9.5400   16.4750   35.5530 C   0  0  0  0  0  0  0  0  0  0  0  0
   -8.9722   17.2365   35.8657 H   0  0  0  0  0  0  0  0  0  0  0  0
   -9.4550   16.0280   34.2120 C   0  0  0  0  0  0  0  0  0  0  0  0
   -8.6050   16.6910   33.2880 C   0  0  0  0  0  0  0  0  0  0  0  0
   -8.0374   17.4601   33.5817 H   0  0  0  0  0  0  0  0  0  0  0  0
   -8.5740   16.2520   31.9620 C   0  0  0  0  0  0  0  0  0  0  0  0
   -7.9914   16.7133   31.2928 H   0  0  0  0  0  0  0  0  0  0  0  0
  2  1  2  0  0  0  0
  3  1  1  0  0  0  0
  4  3  1  0  0  0  0
  5  4  1  0  0  0  0
  6  4  1  0  0  0  0
  7  3  1  0  0  0  0
  7  9  1  1  0  0  0
  8  7  1  0  0  0  0
  9 13  1  1  0  0  0
 10  9  1  0  0  0  0
 11  9  1  0  0  0  0
 12 11  1  0  0  0  0
 13 17  1  1  0  0  0
 14 13  1  0  0  0  0
 15 13  1  0  0  0  0
 16 15  1  0  0  0  0
 17 18  1  1  0  0  0
 19  1  1  0  0  0  0
 19 17  1  0  0  0  0
 20 19  1  0  0  0  0
 21 20  1  0  0  0  0
 22 20  1  0  0  0  0
 23  4  1  0  0  0  0
 24 23  2  0  0  0  0
 25 24  1  0  0  0  0
 26 24  1  0  0  0  0
 27 26  1  0  0  0  0
 28 26  2  0  0  0  0
 29 28  1  0  0  0  0
 30 29  1  0  0  0  0
 31 29  2  0  0  0  0
 32 31  1  0  0  0  0
 33 31  1  0  0  0  0
 34 33  1  0  0  0  0
 35 33  2  0  0  0  0
 36 35  1  0  0  0  0
 37 28  1  0  0  0  0
 37 35  1  0  0  0  0
 38 23  1  0  0  0  0
 38 37  2  0  0  0  0
 39 38  1  0  0  0  0
 40  7  1  0  0  0  0
 41 40  1  0  0  0  0
 42 40  1  0  0  0  0
 43 40  1  0  0  0  0
 44 43  2  0  0  0  0
 45 44  1  0  0  0  0
 46 44  1  0  0  0  0
 47 46  1  0  0  0  0
 48 46  2  0  0  0  0
 49 48  1  0  0  0  0
 50 48  1  0  0  0  0
 51 50  1  0  0  0  0
 52 43  1  0  0  0  0
 52 50  2  0  0  0  0
 53 52  1  0  0  0  0
 54 17  1  0  0  0  0
 55 54  1  0  0  0  0
 56 54  1  0  0  0  0
 57 54  1  0  0  0  0
 58 57  2  0  0  0  0
 59 58  1  0  0  0  0
 60 58  1  0  0  0  0
 61 60  1  0  0  0  0
 62 60  2  0  0  0  0
 63 62  1  0  0  0  0
 64 62  1  0  0  0  0
 65 64  1  0  0  0  0
 66 57  1  0  0  0  0
 66 64  2  0  0  0  0
 67 66  1  0  0  0  0
 68 20  1  0  0  0  0
 69 68  2  0  0  0  0
 70 69  1  0  0  0  0
 71 69  1  0  0  0  0
 72 71  2  0  0  0  0
 73 72  1  0  0  0  0
 74 72  1  0  0  0  0
 75 74  1  0  0  0  0
 76 74  2  0  0  0  0
 77 76  1  0  0  0  0
 78 76  1  0  0  0  0
 79 78  1  0  0  0  0
 80 71  1  0  0  0  0
 80 78  2  0  0  0  0
 81 80  1  0  0  0  0
 82 81  1  0  0  0  0
 83 68  1  0  0  0  0
 83 81  2  0  0  0  0
 84 83  1  0  0  0  0
M  END
$$$$
